FoamFile
{
    version     2.0;
    format      ascii;
    class       dictionary;
    object      radiationProperties;
}

{% if radiation_model | default("none") != "none" %}
radiation       on;
radiationModel  {{ radiation_model | default("viewFactor") }};

{% if radiation_model | default("viewFactor") == "fvDOM" %}
fvDOMCoeffs
{
    nPhi        2;
    nTheta      2;
    maxIter     10;
    tolerance   1e-3;
}

// Nearly-transparent medium for fvDOM (air barely absorbs IR)
absorptionEmissionModel constantAbsorptionEmission;

constantAbsorptionEmissionCoeffs
{
    absorptivity    absorptivity [0 -1 0 0 0 0 0] 0.01;
    emissivity      emissivity  [0 -1 0 0 0 0 0] 0.01;
    E               E           [1 -1 -3 0 0 0 0] 0;
}
{% elif radiation_model | default("viewFactor") == "viewFactor" %}
viewFactorCoeffs
{
    smoothing       0;
    constantEmissivity  true;
}

// Transparent medium (air does not absorb/emit IR radiation)
absorptionEmissionModel constantAbsorptionEmission;

constantAbsorptionEmissionCoeffs
{
    absorptivity    0;
    emissivity      0;
    E               0;
}
{% endif %}

scatterModel    none;
sootModel       none;
{% else %}
radiation       off;
radiationModel  none;
{% endif %}
