FoamFile
{
    version     2.0;
    format      ascii;
    class       volScalarField;
    object      p;
}

dimensions      [1 -1 -2 0 0 0 0];

internalField   uniform 101325;

boundaryField
{
    "(floor|ceiling|heater_wall|heater_wall_surround|opposite_wall|front|back)"
    {
        type            calculated;
        value           uniform 101325;
    }
{% if ventilation | default(false) %}
    supply_vent
    {
        type            calculated;
        value           uniform 101325;
    }
    exhaust_vent
    {
        type            calculated;
        value           uniform 101325;
    }
{% endif %}
}
