FoamFile
{
    version     2.0;
    format      ascii;
    class       volVectorField;
    object      U;
}

dimensions      [0 1 -1 0 0 0 0];

internalField   uniform (0 0 0);

boundaryField
{
    "(floor|ceiling|heater_wall|heater_wall_surround|opposite_wall|front|back)"
    {
        type            noSlip;
    }
{% if ventilation | default(false) %}
    supply_vent
    {
        type            pressureInletOutletVelocity;
        value           uniform (0 0 0);
    }
    exhaust_vent
    {
        type            pressureInletOutletVelocity;
        value           uniform (0 0 0);
    }
{% endif %}
}
